LTspice 24.1.1 for Windows
Circuit: C:\users\ianjackson\Documents\Spring 2025\MATH 560\Project\simulation\flip_flop\flop_flop.net
Start Time: Sun Apr  6 21:39:21 2025
solver = Normal
Maximum thread count: 8
tnom = 27
temp = 27
method = trap
Direct Newton iteration for .op point succeeded.
Total elapsed time: 0.086 seconds.

Files loaded:
C:\users\ianjackson\Documents\Spring 2025\MATH 560\Project\simulation\flip_flop\flop_flop.net
C:\users\ianjackson\Documents\Spring 2025\MATH 560\Project\simulation\flip_flop\ee551.lib

