LTspice 24.1.1 for Windows
Circuit: C:\users\ianjackson\Documents\Spring 2025\MATH 560\Project\simulation\wide_output_OTA\Draft1.net
Start Time: Sun Apr 27 23:58:41 2025
solver = Normal
Maximum thread count: 8
tnom = 27
temp = 27
method = trap
Direct Newton iteration for .op point succeeded.
Total elapsed time: 0.097 seconds.

Files loaded:
C:\users\ianjackson\Documents\Spring 2025\MATH 560\Project\simulation\wide_output_OTA\Draft1.net
C:\users\ianjackson\Documents\Spring 2025\MATH 560\Project\simulation\wide_output_OTA\ee551.lib

