LTspice 24.1.1 for Windows
Circuit: C:\users\ianjackson\Documents\Spring 2025\MATH 560\Project\simulation\cmos_inv\Draft1.net
Start Time: Tue Mar 25 10:17:33 2025
solver = Normal
Maximum thread count: 8
tnom = 27
temp = 27
method = trap
.OP point found by inspection.
.step 
Total elapsed time: 0.068 seconds.

Files loaded:
C:\users\ianjackson\Documents\Spring 2025\MATH 560\Project\simulation\cmos_inv\Draft1.net
C:\users\ianjackson\AppData\Local\LTspice\lib\cmp\standard.dio

