LTspice 24.1.1 for Windows
Circuit: C:\users\ianjackson\Documents\Spring 2025\MATH 560\Project\simulation\cmos_inv\Draft3.net
Start Time: Tue Mar 25 10:42:51 2025
solver = Normal
Maximum thread count: 8
tnom = 27
temp = 27
method = trap
.step 
Total elapsed time: 0.069 seconds.

Files loaded:
C:\users\ianjackson\Documents\Spring 2025\MATH 560\Project\simulation\cmos_inv\Draft3.net
C:\users\ianjackson\AppData\Local\LTspice\lib\cmp\standard.dio
C:\users\ianjackson\AppData\Local\LTspice\lib\sub\UniversalOpAmp1.lib

